18
	Energy:      -3.5609434
C          5.15779       -1.21031        2.40191
C          4.05544       -1.39038        1.36167
C          4.57004       -1.13843       -0.05304
C          5.78936       -2.00005       -0.37019
C          6.89170       -1.81997        0.67006
C          6.37711       -2.07193        2.08477
H          4.77305       -1.46690        3.39535
H          5.45646       -0.15535        2.43729
H          3.65530       -2.40967        1.42762
H          3.22698       -0.70720        1.58001
H          3.77406       -1.34473       -0.77735
H          4.83433       -0.07926       -0.16130
H          6.17410       -1.74347       -1.36363
H          5.49069       -3.05502       -0.40556
H          7.29184       -0.80069        0.60410
H          7.72017       -2.50316        0.45171
H          7.17309       -1.86563        2.80908
H          6.11282       -3.13110        2.19302
