61
 energy: -96.331644689305 gnorm: 0.000126230214 xtb: 6.4.1 (conda-forge)
Fe        0.00000000000000    0.00000000000000    0.00000000000000
N         0.28818500000000    2.20887900000000    0.36771700000000
N         2.19427800000000    0.30652600000000   -0.37522300000000
C        -0.67033000000000    3.12449600000000    0.45572500000000
H        -1.64509900000000    2.75431400000000    0.74287400000000
C        -0.45578800000000    4.47150000000000    0.21723700000000
H        -1.26338800000000    5.17811800000000    0.31530300000000
C         0.81882200000000    4.88052200000000   -0.14911100000000
H         1.02628600000000    5.91891500000000   -0.35522800000000
C         1.82375800000000    3.93244800000000   -0.24590000000000
H         2.81606400000000    4.22422400000000   -0.54906500000000
C         3.91492900000000    1.84998500000000    0.22693000000000
H         4.20429000000000    2.84423400000000    0.52601200000000
C         4.86639300000000    0.84850200000000    0.12824200000000
H         5.90495200000000    1.06038400000000    0.32886800000000
C         4.46050000000000   -0.42863500000000   -0.23314800000000
H         5.16973900000000   -1.23374000000000   -0.33279100000000
C         3.11341800000000   -0.64886200000000   -0.46506600000000
H         2.74580200000000   -1.62553000000000   -0.74910400000000
C         1.53339700000000    2.59609700000000    0.02900900000000
C         2.57840300000000    1.55423400000000   -0.04148300000000
N         0.00321400000000   -2.18694700000000    0.19021200000000
N        -0.03564000000000   -0.20420300000000    2.18035800000000
C        -0.23285900000000   -3.08594200000000   -0.75997600000000
H         0.01540200000000   -2.77827200000000   -1.76666000000000
C        -0.74698000000000   -4.34485300000000   -0.50326700000000
H        -0.90472600000000   -5.04369400000000   -1.30813200000000
C        -1.04560000000000   -4.68035600000000    0.81037800000000
H        -1.46013600000000   -5.64645300000000    1.05200200000000
C        -0.79615800000000   -3.75456000000000    1.80915700000000
H        -1.03322000000000   -3.98654900000000    2.83475000000000
C         0.44582500000000   -1.90915400000000    3.79270100000000
H         0.55817100000000   -2.95560400000000    4.02531900000000
C         0.70212100000000   -0.95026100000000    4.75780900000000
H         0.99520600000000   -1.24058100000000    5.75447200000000
C         0.56838400000000    0.38818100000000    4.41701200000000
H         0.73700700000000    1.16917200000000    5.14006400000000
C         0.20695000000000    0.70554400000000    3.11907600000000
H         0.09108600000000    1.73558300000000    2.81498000000000
C        -0.25353100000000   -2.51401100000000    1.47432100000000
C         0.06078200000000   -1.51095400000000    2.51242400000000
N        -2.17768500000000   -0.01534600000000   -0.18128800000000
N        -0.19759000000000   -0.01635100000000   -2.17474600000000
C        -3.07160900000000   -0.26499900000000    0.77056500000000
H        -2.76843900000000   -0.00633400000000    1.77592700000000
C        -4.32024800000000   -0.80467800000000    0.51695100000000
H        -5.01540400000000   -0.97228400000000    1.32302600000000
C        -4.65101700000000   -1.11525200000000   -0.79524900000000
H        -5.60888500000000   -1.54989800000000   -1.03418300000000
C        -3.73150900000000   -0.85070400000000   -1.79589900000000
H        -3.95997800000000   -1.09568300000000   -2.82042600000000
C        -1.91647400000000    0.42680100000000   -3.78439800000000
H        -2.96570600000000    0.51628900000000   -4.01440500000000
C        -0.96577600000000    0.70264400000000   -4.75208800000000
H        -1.26461800000000    0.98819000000000   -5.74841100000000
C         0.37592500000000    0.59842700000000   -4.41385300000000
H         1.15158000000000    0.78308100000000   -5.13872400000000
C         0.70397700000000    0.24537500000000   -3.11628400000000
H         1.73725700000000    0.15247200000000   -2.81539600000000
C        -2.50177300000000   -0.28187400000000   -1.46456100000000
C        -1.50716600000000    0.05162600000000   -2.50467800000000
