13
 energy: -39.166635182186 gnorm: 0.000422519383 xtb: 6.4.1 (conda-forge)
Fe       -0.00000000000000   -0.00000000000000   -0.00000000000000
C         0.00000000000000    1.93770300000000   -0.00000000000000
O         0.00000000000000    3.04868563301322    0.00025170180175
C         1.93770300000000   -0.00000000000000   -0.00000000000000
O         3.04868563301328    0.00000000000001    0.00025170180175
C         0.00000000000000   -1.93770300000000   -0.00000000000000
O        -0.00000000000000   -3.04868563301341    0.00025170180175
C        -1.93770300000000    0.00000000000000   -0.00000000000000
O        -3.04868563301334    0.00000000000000    0.00025170180175
C        -0.00000000000000   -0.00000000000000    1.93730400000000
O        -0.00000000000000   -0.00000000000000    3.04827844934521
C         0.00000000000000    0.00000000000000   -1.94687100000000
O        -0.00000000000000    0.00000000000000   -3.05763514535671
