44
-1.4066843014153758e+03 frame 35   xyz file generated by TeraChem
    Cu     0.2158254167    0.0005950532    0.0851857734
    Cl     0.3566297180   -0.0033428331   -2.4276433566
     N    -0.0690154824    1.9813591615    0.4428477162
     C    -1.4487927726    2.4159274563    0.0491684329
     H    -1.7493953003    3.2833308898    0.6450959947
     H    -1.4013273376    2.7237382155   -1.0001996566
     N     2.2441589139    0.0007428913    0.5003923820
     C     0.9640604153    2.8496217766   -0.1720495401
     H     0.7011484912    3.8918565636    0.0475271682
     H     0.8989314900    2.6958614809   -1.2522693640
     N    -0.0695676791   -1.9811740382    0.4418830336
     C     2.3672997560    2.5523077443    0.3312183498
     H     2.4225041186    2.6944199208    1.4160066042
     H     3.0314954557    3.3061838451   -0.1050327097
     C     2.9171812408    1.1957284952   -0.0938754794
     H     2.8308348444    1.0931125787   -1.1784138085
     H     3.9813135590    1.1405661305    0.1718375293
     C     2.3990388643    0.0031916786    1.9790215885
     H     1.9271498285   -0.8779245543    2.4124234185
     H     1.9283429303    0.8861766283    2.4098101602
     H     3.4644433583    0.0029201380    2.2426223559
     C     2.9171916591   -1.1964978587   -0.0892598428
     H     3.9813060835   -1.1401270009    0.1762612623
     H     2.8309858104   -1.0977246661   -1.1741684084
     C     2.3674916655   -2.5515331235    0.3407524212
     H     2.4200259692   -2.6886897006    1.4262877702
     H     3.0336340701   -3.3066780187   -0.0903005364
     C     0.9658106438   -2.8521900193   -0.1646858375
     H     0.9039463536   -2.7053289172   -1.2460465574
     H     0.7026830676   -3.8931467346    0.0608029288
     C    -1.4468071901   -2.4135808440    0.0384893806
     H    -1.3937495659   -2.7089847231   -1.0142144341
     H    -1.7494131136   -3.2881344644    0.6228468002
     C    -2.3375176111   -1.2289763819    0.1925325901
     C    -1.7018807279    0.0004473810    0.1484626222
     C    -2.3381522665    1.2293710568    0.1962218177
     C    -3.7325513878    1.2187933130    0.3208427123
     H    -4.2772805780    2.1574366869    0.3709330992
     C    -4.4135014818   -0.0007369744    0.3830240789
     H    -5.4940043043   -0.0011810988    0.4894195124
     C    -3.7317832619   -1.2198077418    0.3175571948
     H    -4.2759182530   -2.1589378140    0.3647816342
     H    -0.0107524978   -2.0502524535    1.4609379433
     H    -0.0030622640    2.0530119310    1.4612390346
