32
-2.5219614262198920e+03 frame 0   xyz file generated by TeraChem
    Fe     0.0000000000    0.0000000000    0.0000000000
    Cl     0.0000000000    2.2400000000    0.0000000000
    Cl     2.2400000000    0.0000000000    0.0000000000
    Cl     0.0000000000   -2.2400000000    0.0000000000
    Cl    -2.2400000000    0.0000000000    0.0000000000
     C     0.0000000000    0.0000000000    2.0300000000
     N     0.0000000000    0.0000000000    3.1875670000
     C     0.0000480000   -0.0001280000    4.5696260000
     C     0.0079450000    1.2075450000    5.2694460000
     C     0.0084370000    1.2113140000    6.6662870000
     C     0.0008740000   -0.0000480000    7.3959330000
     C     0.0021460000    0.0384560000    8.9403780000
     C     1.2682040000    0.7710840000    9.4348290000
     C    -1.2541110000    0.7868270000    9.4367260000
     C    -0.0062350000   -1.3690420000    9.5844220000
     C    -0.0072510000   -1.2149920000    6.6673680000
     C    -0.0076820000   -1.2081500000    5.2689950000
     H     0.0139560000    2.1472870000    4.7307710000
     H     0.0146930000    2.1642320000    7.1774740000
     H     2.1820160000    0.2403970000    9.0896970000
     H     1.2894580000    0.8154610000   10.5454670000
     H     1.3116510000    1.8150250000    9.0611240000
     H    -2.1748930000    0.2676650000    9.0929550000
     H    -1.2850430000    1.8312450000    9.0629550000
     H    -1.2729940000    0.8315340000   10.5473700000
     H    -0.9159070000   -1.9358020000    9.2899630000
     H    -0.0048250000   -1.2947700000   10.6938470000
     H     0.8959910000   -1.9470580000    9.2885430000
     H    -0.0132810000   -2.1738840000    7.1621580000
     H    -0.0138560000   -2.1471140000    4.7292660000
     O     0.0000000000    0.0000000000   -2.0800000000
     H    -0.0358970000   -0.6849540000   -2.7658940000
