32
-2.5220385182793193e+03 frame 77   xyz file generated by TeraChem
    Fe     0.7773298850    1.9306969173    0.7009512059
    Cl     1.1800784944    4.2807092667    0.4160958175
    Cl     2.9737387830    1.5990125192    1.7272543781
    Cl     0.3753909931   -0.4936038664    1.0889831124
    Cl    -1.5918484878    2.2640564946    0.4400877534
     C     0.3857234846    2.1150507915    2.5708858344
     N     0.1364669411    2.0451704631    3.7305522510
     C     0.0229494053    1.2571108012    4.8534244964
     C    -0.2622636434    1.8226898181    6.1016058156
     C    -0.3775441034    1.0052375517    7.2208513934
     C    -0.2170667985   -0.3869476455    7.1366939893
     C    -0.3632895696   -1.2441842982    8.4014352638
     C     0.6938129288   -0.8147620298    9.4417762471
     C    -1.7732859234   -1.0483529556    8.9999528381
     C    -0.1734861623   -2.7434973122    8.1181018756
     C     0.0700522635   -0.9279958399    5.8741898254
     C     0.1917928841   -0.1307977863    4.7394137841
     H    -0.3900249429    2.8980190309    6.1755450649
     H    -0.5992314971    1.4669895093    8.1803768091
     H     1.7042614832   -0.9538732874    9.0421016882
     H     0.5995850719   -1.4089026577   10.3612624027
     H     0.5851705019    0.2412797576    9.7089568811
     H    -2.5411641231   -1.3560906023    8.2816731405
     H    -1.9585662429   -0.0002623007    9.2553674717
     H    -1.8932329225   -1.6474543645    9.9131195245
     H    -0.9083381906   -3.1098408698    7.3935089701
     H    -0.2996048485   -3.3167945168    9.0452674188
     H     0.8257959919   -2.9561161745    7.7234190662
     H     0.2039984200   -1.9977792399    5.7554589387
     H     0.4019133263   -0.5451211154    3.7539262885
     O     1.1288456681    1.6415213430   -1.0188222791
     H     1.0954791798    0.6669633710   -1.0561411427
