21
-7.9797608074457912e+02 frame 41   xyz file generated by TeraChem
     C    -2.1252043209    3.5133636214    0.2345696640
     C    -0.7668190591    3.8811469372    0.3598999660
     C     0.1994285749    2.8829651357    0.5866481219
     C    -0.1509162510    1.5460613956    0.6917069323
     C    -1.4896383094    1.1685781431    0.5451810286
     C    -2.4465023893    2.1515688036    0.3011451338
     C    -3.3395159247    4.3998906692   -0.0354051768
     C    -0.2620109917    5.2923689070    0.2923448590
     H     1.2393823653    3.1655505176    0.7235448117
     H     0.5927209275    0.7799271966    0.8785172841
     C    -1.8010406417   -0.3012137613    0.6309864868
     H    -3.4889064300    1.9152636165    0.1117061354
     O    -0.8139011922    6.2516636639    0.7985085442
     O     0.9148436738    5.4732126995   -0.3330519893
     O    -0.9325207571   -1.1411843085    0.6207364637
     O    -3.1010557540   -0.6621785233    0.7193270943
     H    -3.6786964134    0.1135558782    0.8056915306
     H     1.1845303081    4.6564057871   -0.7863012000
     O    -4.3257036380    3.9087553046   -0.5442737030
     O    -3.3185641394    5.6742697626    0.3388753958
     H    -2.4500266141    5.9395983427    0.7320562069
