22
-7.2394364074714042e+02 frame 53   xyz file generated by TeraChem
     C    -1.9625984322    3.2225052293    0.2864273236
     C    -0.6186931978    3.6060828698    0.2815347673
     C     0.3851379329    2.6322238287    0.2703002382
     C     0.0337287814    1.2872840547    0.2832081756
     C    -1.3021632067    0.8775782650    0.3084418503
     C    -2.3064017489    1.8728147425    0.3049472431
     H    -2.7096239622    4.0045937759    0.2703381870
     C    -0.3414358764    5.0810630129    0.2580509347
     H     1.4357681398    2.9019723312    0.2071420565
     H     0.7877331829    0.5086303857    0.2684941539
     C    -1.5363821932   -0.6151172382    0.3295823420
     O    -3.6091516335    1.4486501103    0.3186740430
     O    -1.1606395455    5.8991480407   -0.0885894622
     O     0.8956551107    5.4753525717    0.6532399367
     O    -0.6114793987   -1.3969745010    0.3361400713
     O    -2.8072900398   -1.0533760603    0.3416206640
     H    -3.4207370192   -0.2906894609    0.3330784852
     H     1.3824367686    4.7243501281    1.0303781484
     C    -4.6575110354    2.4188214005    0.3085803631
     H    -4.6021219822    3.0579779042    1.1957626426
     H    -5.5854778059    1.8473923672    0.3212280406
     H    -4.6098815214    3.0314278971   -0.5974880648
